/*--------------------------------*- C++ -*----------------------------------*\
| =========                 |                                                 |
| \\      /  F ield         | OpenFOAM: The Open Source CFD Toolbox           |
|  \\    /   O peration     | Version:  2206                                  |
|   \\  /    A nd           | Website:  www.openfoam.com                      |
|    \\/     M anipulation  |                                                 |
\*---------------------------------------------------------------------------*/
FoamFile
{
    version     2.0;
    format      ascii;
    arch        "LSB;label=64;scalar=64";
    class       volVectorField;
    location    "0";
    object      U;
}
// * * * * * * * * * * * * * * * * * * * * * * * * * * * * * * * * * * * * * //

dimensions      [0 1 -1 0 0 0 0];

internalField   uniform (0 0 0);

boundaryField
{
    frontAndBack
    {
        type            empty;
    }
    rightAndLeft
    {
        type            empty;
    }
    top
    {
        //type                flowRateInletVelocity;
        //volumetricFlowRate  4.76e-08; //m3/s
        //extrapolateProfile  yes;
        //rho                 rho;
        //rhoInlet            1000;
        //value               uniform (0 0 0);
        type              fixedValue;
        //type              pressureInletOutletVelocity;
        //inletValue        uniform (0 0 -0.000376); 
        value             uniform (0 0 -8.835e-04); 
    }
    bottom
    {
        type              zeroGradient; //advective; //matchedFlowRateOutletVelocity; 
        //inletPatch        top; 
        //rho               rho;
        //phi               phi;
        //type            pressureInletOutletVelocity;
        //value           uniform (0 0 0);
        //type            inletOutlet; //fixedValue;
        //inletValue      uniform (0 0 -0.00038); 
        //value           uniform (0 0 0); 
    }
}


// ************************************************************************* //
