/*--------------------------------*- C++ -*----------------------------------*\
| =========                 |                                                 |
| \\      /  F ield         | OpenFOAM: The Open Source CFD Toolbox           |
|  \\    /   O peration     | Version:  2206                                  |
|   \\  /    A nd           | Website:  www.openfoam.com                      |
|    \\/     M anipulation  |                                                 |
\*---------------------------------------------------------------------------*/
FoamFile
{
    version     2.0;
    format      ascii;
    arch        "LSB;label=64;scalar=64";
    class       volScalarField;
    location    "0";
    object      Sw;
}
// * * * * * * * * * * * * * * * * * * * * * * * * * * * * * * * * * * * * * //

dimensions      [0 0 0 0 0 0 0];

internalField   uniform  0.01;

boundaryField
{
    frontAndBack
    {
        type            symmetry;
    }
    rightAndLeft
    {
        type            empty;
    }
    top
    {
        
        //type            fixedFluxPressure; //zeroGradient;
        //type            inletOutlet;
        //inletValue      uniform 0.5;
        type            fixedValue;
        value           uniform 0.35; //$internalField; 
    }
    bottom
    {
        type            zeroGradient;
        //type            inletOutlet;
        //value           $internalField;
        //inletValue      $internalField;
        //type            fixedValue;
        //value           $internalField;
    }
}

// ************************************************************************* //
